
  EPA STORM WATER MANAGEMENT MODEL - VERSION 5.1 (Build 5.1.013)
  --------------------------------------------------------------

  WARNING 02: maximum depth increased for Node J7
  
  *************
  Element Count
  *************
  Number of rain gages ...... 0
  Number of subcatchments ... 0
  Number of nodes ........... 11
  Number of links ........... 10
  Number of pollutants ...... 0
  Number of land uses ....... 0
  
  
  ************
  Node Summary
  ************
                                           Invert      Max.    Ponded    External
  Name                 Type                 Elev.     Depth      Area    Inflow  
  -------------------------------------------------------------------------------
  J1                   JUNCTION              0.02     20.00       0.0
  J2                   JUNCTION              0.03     20.00       0.0
  J3                   JUNCTION              0.03     20.00       0.0
  J4                   JUNCTION              0.03     20.00       0.0
  J5                   JUNCTION              0.04     20.00       0.0
  J6                   JUNCTION              0.04     20.00       0.0
  J7                   JUNCTION              0.05     25.00       0.0
  J8                   JUNCTION              0.05     20.00       0.0
  OF1                  OUTFALL               0.00      1.00       0.0
  OF2                  OUTFALL               0.00      0.00       0.0
  OF3                  OUTFALL               0.00      0.00       0.0
  
  
  ************
  Link Summary
  ************
  Name             From Node        To Node          Type            Length    %Slope Roughness
  ---------------------------------------------------------------------------------------------
  C1               J1               OF1              CONDUIT          100.6    0.0199    0.0100
  C2               J2               J1               CONDUIT           97.3    0.0051    0.0100
  C3               J3               J2               CONDUIT           96.0    0.0052    0.0100
  C4               J4               J3               CONDUIT           86.1    0.0046    0.0100
  C5               J5               J4               CONDUIT           87.1    0.0046    0.0100
  C6               J6               J5               CONDUIT           93.0    0.0065    0.0100
  C7               J7               J6               CONDUIT           98.1    0.0051    0.0100
  C8               J8               J7               CONDUIT          105.7    0.0047    0.0100
  W1               J5               OF2              WEIR        
  W2               J7               OF3              WEIR        
  
  
  *********************
  Cross Section Summary
  *********************
                                        Full     Full     Hyd.     Max.   No. of     Full
  Conduit          Shape               Depth     Area     Rad.    Width  Barrels     Flow
  ---------------------------------------------------------------------------------------
  C1               CIRCULAR             1.00     0.79     0.25     1.00        1     0.65
  C2               CIRCULAR             1.00     0.79     0.25     1.00        1     0.33
  C3               CIRCULAR             1.00     0.79     0.25     1.00        1     0.33
  C4               CIRCULAR             1.00     0.79     0.25     1.00        1     0.32
  C5               CIRCULAR             1.00     0.79     0.25     1.00        1     0.31
  C6               CIRCULAR             1.00     0.79     0.25     1.00        1     0.37
  C7               CIRCULAR             1.00     0.79     0.25     1.00        1     0.33
  C8               CIRCULAR             1.00     0.79     0.25     1.00        1     0.32
  
  
  
  *********************************************************
  NOTE: The summary statistics displayed in this report are
  based on results found at every computational time step,  
  not just on results from each reporting time step.
  *********************************************************
  
  ****************
  Analysis Options
  ****************
  Flow Units ............... CFS
  Process Models:
    Rainfall/Runoff ........ NO
    RDII ................... NO
    Snowmelt ............... NO
    Groundwater ............ NO
    Flow Routing ........... YES
    Ponding Allowed ........ NO
    Water Quality .......... NO
  Flow Routing Method ...... DYNWAVE
  Surcharge Method ......... SLOT
  Starting Date ............ 11/09/2017 00:00:00
  Ending Date .............. 11/09/2017 06:00:00
  Antecedent Dry Days ...... 0.0
  Report Time Step ......... 00:01:00
  Routing Time Step ........ 1.00 sec
  Variable Time Step ....... NO
  Maximum Trials ........... 8
  Number of Threads ........ 1
  Head Tolerance ........... 0.000100 ft
  
  
  **************************        Volume        Volume
  Flow Routing Continuity        acre-feet      10^6 gal
  **************************     ---------     ---------
  Dry Weather Inflow .......         0.000         0.000
  Wet Weather Inflow .......         0.000         0.000
  Groundwater Inflow .......         0.000         0.000
  RDII Inflow ..............         0.000         0.000
  External Inflow ..........         1.607         0.524
  External Outflow .........         1.589         0.518
  Flooding Loss ............         0.000         0.000
  Evaporation Loss .........         0.000         0.000
  Exfiltration Loss ........         0.000         0.000
  Initial Stored Volume ....         0.001         0.000
  Final Stored Volume ......         0.014         0.005
  Continuity Error (%) .....         0.304
  
  
  *************************
  Highest Continuity Errors
  *************************
  Node J7 (50.94%)
  Node J6 (32.80%)
  
  
  ********************************
  Highest Flow Instability Indexes
  ********************************
  All links are stable.
  
  
  *************************
  Routing Time Step Summary
  *************************
  Minimum Time Step           :     1.00 sec
  Average Time Step           :     1.00 sec
  Maximum Time Step           :     1.00 sec
  Percent in Steady State     :     0.00
  Average Iterations per Step :     2.04
  Percent Not Converging      :     0.08
  
  
  ******************
  Node Depth Summary
  ******************
  
  ---------------------------------------------------------------------------------
                                 Average  Maximum  Maximum  Time of Max    Reported
                                   Depth    Depth      HGL   Occurrence   Max Depth
  Node                 Type         Feet     Feet     Feet  days hr:min        Feet
  ---------------------------------------------------------------------------------
  J1                   JUNCTION     2.45     2.73     2.75     0  00:01        2.52
  J2                   JUNCTION     2.89     3.14     3.17     0  00:02        2.99
  J3                   JUNCTION     3.33     3.63     3.66     0  00:02        3.40
  J4                   JUNCTION     3.71     4.04     4.08     0  00:02        3.77
  J5                   JUNCTION     4.10     4.40     4.43     0  00:02        4.13
  J6                   JUNCTION     4.09     4.40     4.45     0  00:02        4.21
  J7                   JUNCTION     4.08     4.45     4.50     0  00:01        4.45
  J8                   JUNCTION     4.08     4.77     4.82     0  00:02        4.70
  OF1                  OUTFALL      2.00     2.00     2.00     0  00:00        2.00
  OF2                  OUTFALL      5.00     5.00     5.00     0  00:00        5.00
  OF3                  OUTFALL      0.00     0.00     0.00     0  00:00        0.00
  
  
  *******************
  Node Inflow Summary
  *******************
  
  -------------------------------------------------------------------------------------------------
                                  Maximum  Maximum                  Lateral       Total        Flow
                                  Lateral    Total  Time of Max      Inflow      Inflow     Balance
                                   Inflow   Inflow   Occurrence      Volume      Volume       Error
  Node                 Type           CFS      CFS  days hr:min    10^6 gal    10^6 gal     Percent
  -------------------------------------------------------------------------------------------------
  J1                   JUNCTION      0.00     4.46     0  00:00           0        0.52       0.123
  J2                   JUNCTION      0.00     3.94     0  00:00           0       0.519       0.135
  J3                   JUNCTION      0.00     6.06     0  00:00           0       0.519       0.136
  J4                   JUNCTION      0.00     3.39     0  00:02           0       0.519       0.144
  J5                   JUNCTION      0.00     5.52     0  00:00           0       0.522       0.161
  J6                   JUNCTION      0.00     4.70     0  00:01           0     0.00268      48.806
  J7                   JUNCTION      0.00     4.08     0  00:01           0     0.00173     103.850
  J8                   JUNCTION      0.00     3.41     0  00:01           0    0.000665     414.954
  OF1                  OUTFALL       0.00     4.46     0  00:00           0        0.52       0.000
  OF2                  OUTFALL       0.00     5.52     0  00:00           0       0.522       0.000
  OF3                  OUTFALL       0.00     0.00     0  00:00           0           0       0.000 gal
  
  
  **********************
  Node Surcharge Summary
  **********************
  
  Surcharging occurs when water rises above the top of the highest conduit.
  ---------------------------------------------------------------------
                                               Max. Height   Min. Depth
                                   Hours       Above Crown    Below Rim
  Node                 Type      Surcharged           Feet         Feet
  ---------------------------------------------------------------------
  J1                   JUNCTION        6.00          1.732       17.268
  J2                   JUNCTION        5.99          2.143       16.857
  J3                   JUNCTION        5.99          2.629       16.371
  J4                   JUNCTION        5.99          3.041       15.959
  J6                   JUNCTION        5.99          3.402       15.598
  J8                   JUNCTION        5.98          3.769       15.231
  
  
  *********************
  Node Flooding Summary
  *********************
  
  No nodes were flooded.
  
  
  ***********************
  Outfall Loading Summary
  ***********************
  
  -----------------------------------------------------------
                         Flow       Avg       Max       Total
                         Freq      Flow      Flow      Volume
  Outfall Node           Pcnt       CFS       CFS    10^6 gal
  -----------------------------------------------------------
  OF1                  100.00      3.22      4.46       0.520
  OF2                  100.00      3.23      5.52       0.522
  OF3                    0.00      0.00      0.00       0.000
  -----------------------------------------------------------
  System                66.67      6.45      0.00       1.042
  
  
  ********************
  Link Flow Summary
  ********************
  
  -----------------------------------------------------------------------------
                                 Maximum  Time of Max   Maximum    Max/    Max/
                                  |Flow|   Occurrence   |Veloc|    Full    Full
  Link                 Type          CFS  days hr:min    ft/sec    Flow   Depth
  -----------------------------------------------------------------------------
  C1                   CONDUIT      4.46     0  00:00      5.68    6.83    1.00
  C2                   CONDUIT      3.94     0  00:00      5.01   11.86    1.00
  C3                   CONDUIT      3.38     0  00:02      4.31   10.13    1.00
  C4                   CONDUIT      3.31     0  00:03      4.21   10.49    1.00
  C5                   CONDUIT      3.39     0  00:02      4.44   10.80    1.00
  C6                   CONDUIT      4.70     0  00:01      5.98   12.63    1.00
  C7                   CONDUIT      4.08     0  00:01      5.19   12.34    1.00
  C8                   CONDUIT      3.41     0  00:01      4.34   10.71    1.00
  W1                   WEIR         5.52     0  00:00                      0.25
  W2                   WEIR         0.00     0  00:00                      0.00
  
  
  ***************************
  Flow Classification Summary
  ***************************
  
  -------------------------------------------------------------------------------------
                      Adjusted    ---------- Fraction of Time in Flow Class ---------- 
                       /Actual         Up    Down  Sub   Sup   Up    Down  Norm  Inlet 
  Conduit               Length    Dry  Dry   Dry   Crit  Crit  Crit  Crit  Ltd   Ctrl  
  -------------------------------------------------------------------------------------
  C1                      1.00   0.00  0.00  0.00  1.00  0.00  0.00  0.00  0.00  0.00
  C2                      1.00   0.00  0.00  0.00  1.00  0.00  0.00  0.00  0.00  0.00
  C3                      1.00   0.00  0.00  0.00  1.00  0.00  0.00  0.00  0.00  0.00
  C4                      1.00   0.00  0.00  0.00  1.00  0.00  0.00  0.00  0.00  0.00
  C5                      1.00   0.00  0.00  0.00  1.00  0.00  0.00  0.00  0.00  0.00
  C6                      1.00   0.00  0.00  0.00  1.00  0.00  0.00  0.00  0.00  0.00
  C7                      1.00   0.00  0.00  0.00  1.00  0.00  0.00  0.00  0.00  0.00
  C8                      1.00   0.00  0.00  0.00  1.00  0.00  0.00  0.00  0.00  0.00
  
  
  *************************
  Conduit Surcharge Summary
  *************************
  
  ----------------------------------------------------------------------------
                                                           Hours        Hours 
                         --------- Hours Full --------   Above Full   Capacity
  Conduit                Both Ends  Upstream  Dnstream   Normal Flow   Limited
  ----------------------------------------------------------------------------
  C1                          6.00      6.00      6.00      6.00         5.98
  C2                          5.99      5.99      6.00      6.00         5.98
  C3                          5.99      5.99      5.99      5.99         5.98
  C4                          5.99      5.99      5.99      5.99         5.98
  C5                          5.99      5.99      5.99      5.99         5.98
  C6                          5.99      5.99      5.99      0.04         0.03
  C7                          5.98      5.98      5.99      0.03         0.04
  C8                          5.98      5.98      5.98      0.02         0.03
  

  Analysis begun on:  Mon Nov  5 15:31:57 2018
  Analysis ended on:  Mon Nov  5 15:31:57 2018
  Total elapsed time: < 1 sec